30
2-4-diphenylpyrimidine
C          0.06340       -0.12940        0.51260
N         -0.63920       -1.19550        0.13080
C         -1.92030       -1.27360        0.49720
C         -2.50440       -0.25740        1.25000
C         -1.69230        0.80540        1.59890
N         -0.41180        0.88240        1.24290
C          1.49250       -0.06430        0.09130
C         -2.68190       -2.47100        0.05720
C         -2.29320       -3.15710       -1.09380
C         -3.00180       -4.27110       -1.51990
C         -4.10130       -4.71850       -0.79490
C         -4.48940       -4.04480        0.35700
C         -3.78600       -2.92440        0.77890
C          2.07360       -1.12500       -0.60430
C          3.40350       -1.06310       -0.99670
C          4.16780        0.05990       -0.70020
C          3.59480        1.12040       -0.00730
C          2.26550        1.05880        0.38730
H         -3.54670       -0.27750        1.53610
H         -2.08380        1.63270        2.18450
H         -1.43470       -2.80500       -1.65290
H         -2.69580       -4.79230       -2.42050
H         -4.65250       -5.59210       -1.12570
H         -5.33950       -4.39450        0.93240
H         -4.08870       -2.41780        1.68830
H          1.47540       -1.99810       -0.83220
H          3.84520       -1.89450       -1.53540
H          5.20700        0.10810       -1.00750
H          4.18570        1.99930        0.22690
H          1.81570        1.88180        0.92790
