24
4-(meta-methoxylphenyl)pyrimidine
C         -5.64130        1.66890       -0.54930
N         -4.40010        1.22040       -0.43490
C         -4.22730       -0.05650       -0.05310
C         -5.33720       -0.87240        0.21520
C         -6.59970       -0.29100        0.06350
N         -6.75050        0.98200       -0.32160
C         -2.83130       -0.53420        0.05970
C         -2.51030       -1.90070       -0.10610
C         -1.18140       -2.35110        0.00900
C         -0.14870       -1.43960        0.29450
C         -0.44180       -0.06520        0.46520
C         -1.77770        0.36460        0.34610
O          0.49990        0.90060        0.74480
C          1.85940        0.50400        0.84350
H         -5.75980        2.69700       -0.85740
H         -5.23710       -1.89610        0.53890
H         -7.50000       -0.85550        0.25640
H         -3.28730       -2.61360       -0.33700
H         -0.95270       -3.39840       -0.12530
H          0.85860       -1.81840        0.37530
H         -2.00010        1.41380        0.47650
H          2.00840       -0.20550        1.65850
H          2.21500        0.06460       -0.08960
H          2.47440        1.37950        1.05190
