25
4-(para-methoxyphenyl)pyridine
C         -6.46560       -1.07410       -0.18620
C         -5.08330       -1.13740       -0.31550
C         -4.31310       -0.01150       -0.01560
C         -5.00880        1.12600        0.40090
C         -6.39480        1.08420        0.49260
N         -7.13400        0.01050        0.20930
C         -2.83210       -0.02110       -0.13430
C         -2.08790       -1.15220        0.19560
C         -0.69890       -1.17160        0.09150
C         -0.02700       -0.03520       -0.35720
C         -0.75820        1.10830       -0.69490
C         -2.13590        1.11080       -0.58170
O          1.32040        0.06270       -0.50040
C          2.10130       -1.06870       -0.17430
H         -7.07220       -1.94720       -0.42250
H         -4.61450       -2.05150       -0.66990
H         -4.47610        2.03300        0.67400
H         -6.94280        1.96650        0.82020
H         -2.59580       -2.03940        0.56690
H         -0.15810       -2.07040        0.36860
H         -0.21880        1.98110       -1.05080
H         -2.68810        2.00280       -0.86830
H          3.13740       -0.78220       -0.35970
H          1.84440       -1.92920       -0.80510
H          1.98510       -1.34600        0.88120
