41
4-(para-Bpin-phenyl)pyridine
C         -6.27810       -0.58060       -0.71170
C         -4.90030       -0.60060       -0.88700
C         -4.10040       -0.00730        0.07650
C         -4.72990        0.55690        1.17440
C         -6.11440        0.48190        1.25840
N         -6.86200       -0.06250        0.33570
C         -2.68000        0.02190       -0.05710
C         -2.00390        1.22210        0.09860
C         -0.62360        1.24900       -0.05140
C          0.05800        0.07930       -0.31470
C         -0.61160       -1.11870       -0.45110
C         -1.99560       -1.14980       -0.34070
B          1.54500        0.11170       -0.45740
O          2.16920        1.18900       -0.46310
O          2.20550       -0.93720       -0.57570
C          3.48670       -0.55240       -0.89550
C          3.50350        0.86240       -0.39640
C          4.48140       -1.45090       -0.25550
C          3.58990       -0.64840       -2.38300
C          4.31650        1.80110       -1.21150
C          3.88570        0.96920        1.04400
H         -6.90720       -1.02380       -1.48710
H         -4.44050       -1.04260       -1.77240
H         -4.13130        1.01980        1.96060
H         -6.60530        0.90260        2.13900
H         -2.59290        2.11480        0.31430
H         -0.02990        2.16010        0.03450
H         -0.00710       -2.00460       -0.65030
H         -2.57690       -2.06700       -0.44660
H          5.48770       -1.05360       -0.47070
H          4.31110       -1.51550        0.82750
H          4.36290       -2.44670       -0.70940
H          4.60930       -0.40170       -2.70760
H          3.34130       -1.68540       -2.65230
H          2.85600        0.03590       -2.84490
H          5.36180        1.44940       -1.19520
H          3.93880        1.85380       -2.24140
H          4.24370        2.79260       -0.73900
H          4.95840        0.76930        1.16600
H          3.64780        1.99530        1.36050
H          3.28510        0.25500        1.63510
