21
4-phenylpyridine
C         -1.93290        1.51040       -0.26580
C         -0.55530        1.34890       -0.35520
C          0.01940        0.14190        0.04710
C         -0.85130       -0.84060        0.52180
C         -2.21510       -0.57650        0.56970
N         -2.76960        0.57490        0.18680
C          1.48730       -0.08600       -0.02650
C          2.38480        0.93830        0.28820
C          3.75670        0.72520        0.22110
C          4.25330       -0.51540       -0.16550
C          3.36930       -1.54170       -0.48280
C          1.99760       -1.32890       -0.41200
H         -2.39060        2.44650       -0.58260
H          0.06010        2.14980       -0.75610
H         -0.47090       -1.79620        0.87290
H         -2.90130       -1.33500        0.94380
H          2.00440        1.90470        0.61110
H          4.44070        1.53010        0.47780
H          5.32610       -0.68200       -0.21940
H          3.74930       -2.51180       -0.79290
H          1.31310       -2.13000       -0.68140
