20
4-phenylpyrimidine
C         -1.94750        1.02690        0.54550
N         -0.62000        1.03120        0.55140
C         -0.00030       -0.01760       -0.00500
C         -0.74270       -1.05280       -0.57090
C         -2.12030       -0.95240       -0.51530
N         -2.74390        0.08650        0.04570
C          1.48520       -0.01570       -0.00090
C          2.20630       -1.20790       -0.07700
C          3.59460       -1.19110       -0.07530
C          4.27720        0.01740       -0.00360
C          3.56500        1.20960        0.07370
C          2.17790        1.19310        0.07970
H         -2.43470        1.88530        1.00160
H         -0.27240       -1.89810       -1.05430
H         -2.74990       -1.72930       -0.93980
H          1.68790       -2.15890       -0.11540
H          4.14370       -2.12500       -0.12500
H          5.36180        0.03010       -0.00440
H          4.09260        2.15570        0.12950
H          1.61810        2.11830        0.14300
