26
6-phenylquinazoline
C         -2.92970       -2.24740       -0.58690
C         -2.12850       -1.14140       -0.21610
C         -2.81900        0.00490        0.22070
N         -4.18400        0.02140        0.28140
C         -4.80250       -1.06700       -0.08630
N         -4.23790       -2.22510       -0.52790
C         -0.71580       -1.14690       -0.27370
C         -0.00190       -0.03610        0.09630
C         -0.70990        1.11930        0.53550
C         -2.07360        1.14720        0.60020
C          1.48220       -0.02400        0.04410
C          2.16960        1.11010       -0.39260
C          3.55720        1.11610       -0.45320
C          4.27890       -0.01010       -0.07210
C          3.60330       -1.14230        0.36910
C          2.21560       -1.14890        0.42660
H         -2.45480       -3.16240       -0.93680
H         -5.88860       -1.06280       -0.04090
H         -0.20850       -2.03630       -0.63270
H         -0.14230        1.99090        0.84300
H         -2.60760        2.02520        0.94500
H          1.61410        1.98750       -0.70710
H          4.07610        2.00170       -0.80350
H          5.36250       -0.00460       -0.11680
H          4.15850       -2.02170        0.67760
H          1.69530       -2.02830        0.79070
