39
benzpyrimoxan
C         -6.46500        0.80820       -0.26400
N         -5.15700        1.00870       -0.35510
C         -4.35850        0.00560        0.05790
C         -4.88060       -1.19470        0.56020
C         -6.27830       -1.28090        0.60390
N         -7.07120       -0.27670        0.19100
O         -2.99160        0.17730       -0.01880
C         -4.00530       -2.33410        1.02570
O         -4.32900       -3.44540        0.24860
C         -3.59580       -4.60530        0.61860
C         -3.87220       -4.89760        2.09610
C         -3.56620       -3.64320        2.91940
O         -4.30000       -2.55700        2.37000
C         -2.49100        1.39130       -0.56680
C         -0.97430        1.39520       -0.57170
C         -0.26010        1.56740       -1.77570
C          1.14940        1.56050       -1.76850
C          1.85850        1.38930       -0.55960
C          1.13870        1.21920        0.64300
C         -0.27060        1.22430        0.63780
C          3.38140        1.36460       -0.55520
F          3.85920        1.83230        0.59860
F          3.79910        0.10960       -0.71500
F          3.87170        2.10990       -1.54640
H         -7.10140        1.61460       -0.59590
H         -6.77000       -2.16840        0.97490
H         -2.94330       -2.10130        0.91300
H         -3.90710       -5.44380       -0.00450
H         -2.53030       -4.44880        0.44200
H         -4.91950       -5.17340        2.22460
H         -3.27550       -5.74220        2.44150
H         -3.85690       -3.78600        3.96020
H         -2.49840       -3.41840        2.90950
H         -2.86290        1.52390       -1.58430
H         -2.83470        2.24230        0.02380
H         -0.78880        1.69740       -2.70930
H          1.69290        1.68310       -2.69410
H          1.67370        1.08100        1.57120
H         -0.81370        1.09100        1.56290
